
This summary file was generated by TurbSim (from OpenFAST-v4.0.0) on 15-Apr-2025 at 10:06:30.


Runtime Options:

     13428  Random seed #1
    RANLUX  Type of random number generator
         F  Output binary HH turbulence parameters?
         F  Output formatted turbulence parameters?
         F  Output AeroDyn HH files?
         T  Output AeroDyn FF files?
         F  Output BLADED FF files?
         F  Output tower data?
         F  Output HAWC FF files?
         F  Output formatted FF files?
         F  Output coherent turbulence time step file?
 0 -  NONE  IEC turbulence models scaled to exact specified standard deviation


Turbine/Model Specifications:

        31  Vertical grid-point matrix dimension
        31  Horizontal grid-point matrix dimension
     0.050  Time step [seconds]
  4000.000  Analysis time [seconds]
  4000.000  Usable output time [seconds]
    90.000  Hub height [m]
   175.000  Grid height [m]
   200.000  Grid width [m]
     0.000  Vertical flow angle [degrees]
     0.000  Horizontal flow angle [degrees]


Meteorological Boundary Conditions:

    IECKAI  IEC Kaimal spectral model
         1  IEC standard: IEC 61400-1 Ed. 3: 2005
         B  IEC turbulence characteristic
       NTM  IEC Normal Turbulence Model
       N/A  IEC Extreme Turbulence Model (ETM) "c" parameter [m/s]
       PL   Wind profile type
    90.000  Reference height [m]
    12.000  Reference wind speed [m/s]
       N/A  Jet height [m]
     0.200  Power law exponent
     0.030  Surface roughness length [m]


Non-IEC Meteorological Boundary Conditions:

       N/A  Site latitude [degrees]
       N/A  Gradient Richardson number
       N/A  Friction or shear velocity [m/s]
       N/A  Mixing layer depth [m]
       N/A  Mean hub u'w' Reynolds stress
       N/A  Mean hub u'v' Reynolds stress
       N/A  Mean hub v'w' Reynolds stress


Spatial Coherence Models:

       IEC  u-component coherence model
      NONE  v-component coherence model
      NONE  w-component coherence model
(   12.000, 0.353E-03)  u-component coherence parameters
                   N/A  v-component coherence parameters
                   N/A  w-component coherence parameters
       N/A  Coherence exponent


You have requested that the following file(s) be generated:

   90m_12mps_twr.bts (AeroDyn/TurbSim full-field wind file)


Turbulence Simulation Scaling Parameter Summary:

   Turbulence model used                            =  IEC Kaimal
   Turbulence characteristic                        =  B
   IEC turbulence type                              =  Normal Turbulence Model
   IEC standard                                     =  IEC 61400-1 Ed. 3: 2005
   Mean wind speed at hub height                    =   12.000 m/s
   Expected value of turbulence intensity at 15 m/s =   14.000%
   Characteristic value of standard deviation       =    2.044 m/s
   Turbulence scale                                 =   42.000 m
   u-component integral scale                       =  340.200 m
   Coherency scale                                  =  340.200 m
   Characteristic value of hub turbulence intensity =   17.033%
   Gradient Richardson number                       =    0.000

   Wind profile type                                =  Power law
   Power law exponent                               =    0.200
   Mean shear across rotor disk                     =    0.045 (m/s)/m
   Assumed rotor diameter                           =  175.000 m
   Surface roughness length                         =    0.030 m

   Nyquist frequency of turbulent wind field        =   10.000 Hz

   Number of time steps in the FFT                  =    80408
   Number of time steps output                      =    80334
   Number of points simulated                       =      961


Mean Flow Angles:

   Vertical   =   0.0 degrees
   Horizontal =   0.0 degrees

Mean Wind Speed Profile:

   Height    Wind Speed   Horizontal Angle  Vertical Angle  U-comp (X)   V-comp (Y)   W-comp (Z)
     (m)        (m/s)         (degrees)       (degrees)       (m/s)        (m/s)        (m/s)   
   ------    ----------   ----------------  --------------  ----------   ----------   ----------
    177.5       13.75            0.00            0.00         13.75         0.00         0.00
    171.7       13.65            0.00            0.00         13.65         0.00         0.00
    165.8       13.56            0.00            0.00         13.56         0.00         0.00
    160.0       13.46            0.00            0.00         13.46         0.00         0.00
    154.2       13.36            0.00            0.00         13.36         0.00         0.00
    148.3       13.26            0.00            0.00         13.26         0.00         0.00
    142.5       13.16            0.00            0.00         13.16         0.00         0.00
    136.7       13.05            0.00            0.00         13.05         0.00         0.00
    130.8       12.93            0.00            0.00         12.93         0.00         0.00
    125.0       12.81            0.00            0.00         12.81         0.00         0.00
    119.2       12.69            0.00            0.00         12.69         0.00         0.00
    113.3       12.57            0.00            0.00         12.57         0.00         0.00
    107.5       12.43            0.00            0.00         12.43         0.00         0.00
    101.7       12.30            0.00            0.00         12.30         0.00         0.00
     95.8       12.15            0.00            0.00         12.15         0.00         0.00
     90.0       12.00            0.00            0.00         12.00         0.00         0.00
     84.2       11.84            0.00            0.00         11.84         0.00         0.00
     78.3       11.67            0.00            0.00         11.67         0.00         0.00
     72.5       11.49            0.00            0.00         11.49         0.00         0.00
     66.7       11.30            0.00            0.00         11.30         0.00         0.00
     60.8       11.10            0.00            0.00         11.10         0.00         0.00
     55.0       10.87            0.00            0.00         10.87         0.00         0.00
     49.2       10.63            0.00            0.00         10.63         0.00         0.00
     43.3       10.37            0.00            0.00         10.37         0.00         0.00
     37.5       10.07            0.00            0.00         10.07         0.00         0.00
     31.7        9.74            0.00            0.00          9.74         0.00         0.00
     25.8        9.35            0.00            0.00          9.35         0.00         0.00
     20.0        8.88            0.00            0.00          8.88         0.00         0.00
     14.2        8.29            0.00            0.00          8.29         0.00         0.00
      8.3        7.46            0.00            0.00          7.46         0.00         0.00
      2.5        5.86            0.00            0.00          5.86         0.00         0.00


Harvested Random Seeds after Generation of the Random Numbers:

     76979627 K 1
            1 K 2


Hub-Height Simulated Turbulence Statistical Summary:

   Type of Wind        Min (m/s)   Mean (m/s)    Max (m/s)  Sigma (m/s)       TI (%)
   ----------------    ---------   ----------    ---------  -----------       ------
   Longitudinal (u)         5.19        12.00        21.99        1.962       16.352
   Lateral (v)             -6.05         0.00         7.18        1.619       13.495
   Vertical (w)            -3.82         0.00         3.79        1.002        8.352
   U component              5.19        12.00        21.99        1.962       16.352
   V component             -6.05         0.00         7.18        1.619       13.495
   W component             -3.82         0.00         3.79        1.002        8.352
   Horizontal (U&V)         5.32        12.11        22.04        1.945       16.059
   Total                    5.32        12.15        22.05        1.939       15.957

                       Min Reynolds     Mean Reynolds    Max Reynolds    Correlation
   Product             Stress (m/s)^2   Stress (m/s)^2   Stress (m/s)^2  Coefficient
   ----------------    --------------   --------------   --------------  -----------
   u'w'                    -17.619            -0.036            14.945        -0.018
   u'v'                    -37.820            -0.143            25.378        -0.045
   v'w'                    -16.872             0.022            16.001         0.013


   Friction Velocity (Ustar)  =      0.190 m/s
   Maximum Instantaneous TKE  =     51.134 (m/s)^2
   Maximum Instantaneous CTKE =     19.232 (m/s)^2


Grid Point Variance Summary:

   Y-coord -100.00  -93.33  -86.67  -80.00  -73.33  -66.67  -60.00  -53.33  -46.67  -40.00  -33.33  -26.67  -20.00  -13.33   -6.67    0.00    6.67   13.33   20.00   26.67   33.33   40.00   46.67   53.33   60.00   66.67   73.33   80.00   86.67   93.33  100.00

   Height   Standard deviation at grid points for the u component:
   177.50    2.116   2.065   2.073   2.032   2.080   2.083   2.019   2.021   2.057   2.044   2.000   2.035   2.034   2.031   2.040   2.031   2.043   2.045   2.040   2.036   2.003   2.028   2.118   2.069   2.041   2.055   2.067   2.058   2.082   2.049   2.045
   171.67    2.045   2.065   2.097   2.047   2.070   2.060   1.998   1.951   2.066   2.068   2.051   2.062   2.045   2.031   2.026   2.037   2.046   1.979   1.998   2.056   2.030   2.032   2.036   2.093   2.100   2.070   2.092   2.091   2.090   2.053   2.053
   165.83    2.020   2.067   2.067   2.060   2.032   2.086   2.036   1.994   2.026   2.023   2.081   2.010   2.066   2.020   2.018   2.034   2.004   2.043   2.000   2.060   2.052   2.001   2.077   2.059   2.087   2.046   2.078   2.053   2.063   2.073   2.049
   160.00    2.026   2.001   2.023   2.022   2.029   2.075   2.073   2.031   2.000   2.007   2.048   2.044   2.004   2.044   2.020   2.021   2.001   2.022   2.070   2.062   2.067   2.083   2.065   2.065   2.062   2.034   2.054   1.996   2.040   1.994   2.037
   154.17    1.965   1.963   2.008   2.017   1.999   2.033   2.033   1.986   1.988   2.019   2.022   2.036   2.026   2.039   2.006   1.965   1.982   2.055   2.066   2.046   2.021   2.035   2.080   2.067   2.068   2.057   2.018   1.970   2.036   1.990   1.997
   148.33    1.941   1.951   1.984   2.065   2.007   1.972   1.985   1.982   1.966   2.017   2.015   1.985   1.957   1.999   1.998   2.007   2.022   2.042   2.036   2.040   2.037   2.030   2.022   2.058   2.052   2.062   2.041   1.967   2.040   2.055   1.996
   142.50    1.931   1.957   2.010   2.042   2.032   1.985   1.947   1.939   1.980   1.988   1.974   2.014   1.999   1.979   1.993   2.007   2.034   2.067   2.067   2.044   2.001   2.001   2.014   2.065   2.064   2.029   2.037   1.991   2.011   1.993   2.039
   136.67    1.907   1.926   1.949   1.989   1.982   1.987   1.954   1.942   1.958   1.978   1.984   1.989   2.004   1.983   2.021   2.024   2.015   2.065   2.051   2.009   2.011   2.026   1.997   2.012   1.966   1.996   2.001   2.005   2.020   2.017   1.992
   130.83    1.950   1.947   1.956   1.989   1.980   1.960   1.941   1.903   1.954   1.983   1.996   1.988   1.977   1.993   1.985   2.009   1.998   2.024   2.021   2.009   2.020   2.026   1.991   1.966   1.977   1.975   1.985   2.043   2.049   2.001   1.979
   125.00    1.908   1.931   1.991   1.969   2.005   1.964   1.985   1.934   1.938   1.997   1.993   1.995   1.955   1.943   1.982   1.951   1.974   2.007   2.026   2.067   2.031   1.982   1.965   1.975   1.980   2.028   2.031   2.013   2.032   2.021   1.993
   119.17    1.950   1.947   1.987   1.966   1.967   1.965   1.956   1.972   1.986   2.048   2.011   1.992   1.959   1.975   1.954   1.970   1.976   2.005   1.975   2.013   2.024   1.959   1.930   1.970   1.974   2.018   2.039   2.025   2.017   2.026   2.000
   113.33    1.969   1.992   1.956   1.957   1.934   1.978   1.910   1.946   1.998   2.008   1.967   1.986   1.969   1.997   1.980   1.950   1.917   1.968   1.966   1.974   1.996   1.965   1.966   1.949   1.991   2.019   2.002   2.035   2.067   2.080   2.051
   107.50    2.005   1.977   1.966   1.995   1.971   1.943   1.944   1.950   1.989   1.969   1.987   2.024   1.980   2.008   1.968   1.949   1.946   1.931   1.970   1.949   1.918   1.940   1.949   1.960   1.980   1.986   2.039   2.030   2.053   2.148   2.127
   101.67    2.013   1.935   2.021   2.037   2.022   2.001   1.962   1.980   1.962   1.994   2.007   2.026   2.010   1.999   1.960   1.956   1.981   1.990   1.973   1.909   1.940   1.965   1.992   1.970   1.977   2.009   2.013   2.037   2.087   2.096   2.128
    95.83    2.011   1.964   1.979   1.997   2.058   2.047   2.007   1.961   2.062   1.987   2.003   1.995   2.020   2.016   1.978   1.949   1.974   1.955   1.994   1.996   1.958   1.982   1.947   1.970   1.985   1.987   2.024   2.037   2.037   2.145   2.139
    90.00    2.003   1.964   1.937   1.961   1.970   2.003   1.972   1.979   2.035   2.002   2.007   1.960   1.983   1.979   1.977   1.962   1.971   1.968   1.979   1.987   1.976   1.988   2.012   1.956   2.015   2.043   2.030   2.007   2.079   2.108   2.165
    84.17    1.956   1.998   2.018   1.936   1.956   1.953   1.968   2.012   2.059   2.015   1.960   1.966   2.011   1.998   1.969   1.948   1.958   1.972   2.025   2.007   1.960   1.998   2.002   2.004   2.041   2.066   2.038   2.062   2.122   2.185   2.122
    78.33    1.961   2.001   2.055   1.975   1.950   1.944   1.940   1.978   1.998   1.993   1.953   2.005   2.017   2.014   1.953   1.994   2.019   2.000   2.008   2.040   2.017   2.010   2.039   2.015   2.027   2.038   2.022   2.079   2.133   2.177   2.119
    72.50    2.002   2.048   2.058   2.015   1.989   1.999   1.975   2.026   2.031   2.024   1.975   2.028   2.094   2.054   2.001   1.979   1.976   2.025   2.012   1.992   1.971   2.016   2.023   2.032   2.041   2.019   2.020   2.052   2.085   2.106   2.114
    66.67    2.009   1.999   2.043   2.031   2.011   2.000   2.000   2.082   2.107   2.082   2.051   2.059   2.096   2.076   2.048   2.032   2.005   2.049   2.028   2.056   2.055   2.046   2.062   2.037   2.023   2.025   2.013   1.990   2.061   2.101   2.092
    60.83    2.000   2.023   2.051   2.015   2.039   2.021   2.067   2.120   2.149   2.104   2.102   2.084   2.051   2.086   2.069   2.082   2.044   2.066   2.008   2.032   2.072   2.078   2.059   2.008   1.992   2.010   2.004   2.018   2.031   2.070   2.080
    55.00    1.968   2.018   2.037   2.042   2.043   2.061   2.089   2.175   2.148   2.151   2.110   2.107   2.061   2.039   2.024   2.030   2.066   2.080   1.963   2.020   2.073   2.040   1.995   1.959   2.035   2.014   2.005   2.031   2.034   2.060   2.037
    49.17    1.999   2.010   2.023   2.089   2.077   2.059   2.140   2.270   2.184   2.160   2.116   2.134   2.100   2.069   2.065   2.052   2.103   2.070   2.011   2.014   2.032   2.041   1.983   1.984   1.984   1.961   2.040   2.031   2.010   2.053   2.043
    43.33    1.976   2.012   1.978   2.066   2.141   2.111   2.164   2.216   2.169   2.139   2.086   2.144   2.098   2.057   2.086   2.087   2.079   2.063   2.003   2.006   2.046   2.009   2.042   2.048   2.026   2.003   2.045   2.024   2.014   2.035   2.028
    37.50    2.027   2.007   2.023   2.084   2.124   2.143   2.149   2.172   2.149   2.083   2.084   2.076   2.119   2.070   2.054   2.012   2.040   2.033   1.978   1.961   2.047   2.030   2.040   2.040   2.016   2.005   2.048   2.059   2.054   2.040   2.024
    31.67    2.036   2.025   2.050   2.076   2.084   2.100   2.161   2.187   2.135   2.112   2.091   2.078   2.145   2.144   2.050   2.107   2.026   2.023   2.021   2.025   2.004   2.065   2.031   2.078   2.016   2.012   2.033   2.027   2.024   2.041   2.004
    25.83    2.031   2.046   2.089   2.071   2.088   2.134   2.172   2.150   2.162   2.162   2.126   2.130   2.153   2.113   2.078   2.078   2.024   2.019   2.040   2.029   2.025   2.080   2.085   2.051   2.000   2.020   2.066   2.051   2.028   2.037   2.053
    20.00    2.006   2.025   2.071   2.084   2.122   2.148   2.164   2.168   2.136   2.156   2.163   2.135   2.090   2.078   2.060   2.075   2.044   2.027   2.038   2.081   2.062   2.062   2.048   2.069   2.021   2.069   2.043   2.074   2.024   2.055   2.062
    14.17    1.990   2.031   2.090   2.136   2.140   2.190   2.190   2.125   2.113   2.152   2.154   2.134   2.055   2.034   2.041   2.075   2.060   2.114   2.102   2.088   2.077   2.072   2.052   2.066   2.050   2.070   2.064   2.060   2.071   2.083   2.078
     8.33    2.013   2.085   2.056   2.100   2.142   2.166   2.129   2.180   2.119   2.126   2.117   2.081   2.073   2.040   2.048   2.071   2.071   2.084   2.131   2.113   2.093   2.092   2.093   2.081   2.067   2.044   2.052   2.036   2.029   2.064   2.093
     2.50    2.022   2.047   2.056   2.115   2.179   2.175   2.142   2.118   2.141   2.078   2.082   2.097   2.037   2.026   2.027   2.033   2.065   2.093   2.121   2.097   2.113   2.079   2.073   2.077   2.078   2.098   2.054   2.031   2.004   2.059   2.036

   Height   Standard deviation at grid points for the v component:
   177.50    1.619   1.619   1.619   1.619   1.619   1.619   1.619   1.619   1.619   1.619   1.619   1.619   1.619   1.619   1.619   1.619   1.619   1.619   1.619   1.619   1.619   1.619   1.619   1.619   1.619   1.619   1.619   1.619   1.619   1.619   1.619
   171.67    1.619   1.619   1.619   1.619   1.619   1.619   1.619   1.619   1.619   1.619   1.619   1.619   1.619   1.619   1.619   1.619   1.619   1.619   1.619   1.619   1.619   1.619   1.619   1.619   1.619   1.619   1.619   1.619   1.619   1.619   1.619
   165.83    1.619   1.619   1.619   1.619   1.619   1.619   1.619   1.619   1.619   1.619   1.619   1.619   1.619   1.619   1.619   1.619   1.619   1.619   1.619   1.619   1.619   1.619   1.619   1.619   1.619   1.619   1.619   1.619   1.619   1.619   1.619
   160.00    1.619   1.619   1.619   1.619   1.619   1.619   1.619   1.619   1.619   1.619   1.619   1.619   1.619   1.619   1.619   1.619   1.619   1.619   1.619   1.619   1.619   1.619   1.619   1.619   1.619   1.619   1.619   1.619   1.619   1.619   1.619
   154.17    1.619   1.619   1.619   1.619   1.619   1.619   1.619   1.619   1.619   1.619   1.619   1.619   1.619   1.619   1.619   1.619   1.619   1.619   1.619   1.619   1.619   1.619   1.619   1.619   1.619   1.619   1.619   1.619   1.619   1.619   1.619
   148.33    1.619   1.619   1.619   1.619   1.619   1.619   1.619   1.619   1.619   1.619   1.619   1.619   1.619   1.619   1.619   1.619   1.619   1.619   1.619   1.619   1.619   1.619   1.619   1.619   1.619   1.619   1.619   1.619   1.619   1.619   1.619
   142.50    1.619   1.619   1.619   1.619   1.619   1.619   1.619   1.619   1.619   1.619   1.619   1.619   1.619   1.619   1.619   1.619   1.619   1.619   1.619   1.619   1.619   1.619   1.619   1.619   1.619   1.619   1.619   1.619   1.619   1.619   1.619
   136.67    1.619   1.619   1.619   1.619   1.619   1.619   1.619   1.619   1.619   1.619   1.619   1.619   1.619   1.619   1.619   1.619   1.619   1.619   1.619   1.619   1.619   1.619   1.619   1.619   1.619   1.619   1.619   1.619   1.619   1.619   1.619
   130.83    1.619   1.619   1.619   1.619   1.619   1.619   1.619   1.619   1.619   1.619   1.619   1.619   1.619   1.619   1.619   1.619   1.619   1.619   1.619   1.619   1.619   1.619   1.619   1.619   1.619   1.619   1.619   1.619   1.619   1.619   1.619
   125.00    1.619   1.619   1.619   1.619   1.619   1.619   1.619   1.619   1.619   1.619   1.619   1.619   1.619   1.619   1.619   1.619   1.619   1.619   1.619   1.619   1.619   1.619   1.619   1.619   1.619   1.619   1.619   1.619   1.619   1.619   1.619
   119.17    1.619   1.619   1.619   1.619   1.619   1.619   1.619   1.619   1.619   1.619   1.619   1.619   1.619   1.619   1.619   1.619   1.619   1.619   1.619   1.619   1.619   1.619   1.619   1.619   1.619   1.619   1.619   1.619   1.619   1.619   1.619
   113.33    1.619   1.619   1.619   1.619   1.619   1.619   1.619   1.619   1.619   1.619   1.619   1.619   1.619   1.619   1.619   1.619   1.619   1.619   1.619   1.619   1.619   1.619   1.619   1.619   1.619   1.619   1.619   1.619   1.619   1.619   1.619
   107.50    1.619   1.619   1.619   1.619   1.619   1.619   1.619   1.619   1.619   1.619   1.619   1.619   1.619   1.619   1.619   1.619   1.619   1.619   1.619   1.619   1.619   1.619   1.619   1.619   1.619   1.619   1.619   1.619   1.619   1.619   1.619
   101.67    1.619   1.619   1.619   1.619   1.619   1.619   1.619   1.619   1.619   1.619   1.619   1.619   1.619   1.619   1.619   1.619   1.619   1.619   1.619   1.619   1.619   1.619   1.619   1.619   1.619   1.619   1.619   1.619   1.619   1.619   1.619
    95.83    1.619   1.619   1.619   1.619   1.619   1.619   1.619   1.619   1.619   1.619   1.619   1.619   1.619   1.619   1.619   1.619   1.619   1.619   1.619   1.619   1.619   1.619   1.619   1.619   1.619   1.619   1.619   1.619   1.619   1.619   1.619
    90.00    1.619   1.619   1.619   1.619   1.619   1.619   1.619   1.619   1.619   1.619   1.619   1.619   1.619   1.619   1.619   1.619   1.619   1.619   1.619   1.619   1.619   1.619   1.619   1.619   1.619   1.619   1.619   1.619   1.619   1.619   1.619
    84.17    1.619   1.619   1.619   1.619   1.619   1.619   1.619   1.619   1.619   1.619   1.619   1.619   1.619   1.619   1.619   1.619   1.619   1.619   1.619   1.619   1.619   1.619   1.619   1.619   1.619   1.619   1.619   1.619   1.619   1.619   1.619
    78.33    1.619   1.619   1.619   1.619   1.619   1.619   1.619   1.619   1.619   1.619   1.619   1.619   1.619   1.619   1.619   1.619   1.619   1.619   1.619   1.619   1.619   1.619   1.619   1.619   1.619   1.619   1.619   1.619   1.619   1.619   1.619
    72.50    1.619   1.619   1.619   1.619   1.619   1.619   1.619   1.619   1.619   1.619   1.619   1.619   1.619   1.619   1.619   1.619   1.619   1.619   1.619   1.619   1.619   1.619   1.619   1.619   1.619   1.619   1.619   1.619   1.619   1.619   1.619
    66.67    1.619   1.619   1.619   1.619   1.619   1.619   1.619   1.619   1.619   1.619   1.619   1.619   1.619   1.619   1.619   1.619   1.619   1.619   1.619   1.619   1.619   1.619   1.619   1.619   1.619   1.619   1.619   1.619   1.619   1.619   1.619
    60.83    1.619   1.619   1.619   1.619   1.619   1.619   1.619   1.619   1.619   1.619   1.619   1.619   1.619   1.619   1.619   1.619   1.619   1.619   1.619   1.619   1.619   1.619   1.619   1.619   1.619   1.619   1.619   1.619   1.619   1.619   1.619
    55.00    1.619   1.619   1.619   1.619   1.619   1.619   1.619   1.619   1.619   1.619   1.619   1.619   1.619   1.619   1.619   1.619   1.619   1.619   1.619   1.619   1.619   1.619   1.619   1.619   1.619   1.619   1.619   1.619   1.619   1.619   1.619
    49.17    1.619   1.619   1.619   1.619   1.619   1.619   1.619   1.619   1.619   1.619   1.619   1.619   1.619   1.619   1.619   1.619   1.619   1.619   1.619   1.619   1.619   1.619   1.619   1.619   1.619   1.619   1.619   1.619   1.619   1.619   1.619
    43.33    1.619   1.619   1.619   1.619   1.619   1.619   1.619   1.619   1.619   1.619   1.619   1.619   1.619   1.619   1.619   1.619   1.619   1.619   1.619   1.619   1.619   1.619   1.619   1.619   1.619   1.619   1.619   1.619   1.619   1.619   1.619
    37.50    1.619   1.619   1.619   1.619   1.619   1.619   1.619   1.619   1.619   1.619   1.619   1.619   1.619   1.619   1.619   1.619   1.619   1.619   1.619   1.619   1.619   1.619   1.619   1.619   1.619   1.619   1.619   1.619   1.619   1.619   1.619
    31.67    1.619   1.619   1.619   1.619   1.619   1.619   1.619   1.619   1.619   1.619   1.619   1.619   1.619   1.619   1.619   1.619   1.619   1.619   1.619   1.619   1.619   1.619   1.619   1.619   1.619   1.619   1.619   1.619   1.619   1.619   1.619
    25.83    1.619   1.619   1.619   1.619   1.619   1.619   1.619   1.619   1.619   1.619   1.619   1.619   1.619   1.619   1.619   1.619   1.619   1.619   1.619   1.619   1.619   1.619   1.619   1.619   1.619   1.619   1.619   1.619   1.619   1.619   1.619
    20.00    1.619   1.619   1.619   1.619   1.619   1.619   1.619   1.619   1.619   1.619   1.619   1.619   1.619   1.619   1.619   1.619   1.619   1.619   1.619   1.619   1.619   1.619   1.619   1.619   1.619   1.619   1.619   1.619   1.619   1.619   1.619
    14.17    1.619   1.619   1.619   1.619   1.619   1.619   1.619   1.619   1.619   1.619   1.619   1.619   1.619   1.619   1.619   1.619   1.619   1.619   1.619   1.619   1.619   1.619   1.619   1.619   1.619   1.619   1.619   1.619   1.619   1.619   1.619
     8.33    1.619   1.619   1.619   1.619   1.619   1.619   1.619   1.619   1.619   1.619   1.619   1.619   1.619   1.619   1.619   1.619   1.619   1.619   1.619   1.619   1.619   1.619   1.619   1.619   1.619   1.619   1.619   1.619   1.619   1.619   1.619
     2.50    1.619   1.619   1.619   1.619   1.619   1.619   1.619   1.619   1.619   1.619   1.619   1.619   1.619   1.619   1.619   1.619   1.619   1.619   1.619   1.619   1.619   1.619   1.619   1.619   1.619   1.619   1.619   1.619   1.619   1.619   1.619

   Height   Standard deviation at grid points for the w component:
   177.50    1.002   1.002   1.002   1.002   1.002   1.002   1.002   1.002   1.002   1.002   1.002   1.002   1.002   1.002   1.002   1.002   1.002   1.002   1.002   1.002   1.002   1.002   1.002   1.002   1.002   1.002   1.002   1.002   1.002   1.002   1.002
   171.67    1.002   1.002   1.002   1.002   1.002   1.002   1.002   1.002   1.002   1.002   1.002   1.002   1.002   1.002   1.002   1.002   1.002   1.002   1.002   1.002   1.002   1.002   1.002   1.002   1.002   1.002   1.002   1.002   1.002   1.002   1.002
   165.83    1.002   1.002   1.002   1.002   1.002   1.002   1.002   1.002   1.002   1.002   1.002   1.002   1.002   1.002   1.002   1.002   1.002   1.002   1.002   1.002   1.002   1.002   1.002   1.002   1.002   1.002   1.002   1.002   1.002   1.002   1.002
   160.00    1.002   1.002   1.002   1.002   1.002   1.002   1.002   1.002   1.002   1.002   1.002   1.002   1.002   1.002   1.002   1.002   1.002   1.002   1.002   1.002   1.002   1.002   1.002   1.002   1.002   1.002   1.002   1.002   1.002   1.002   1.002
   154.17    1.002   1.002   1.002   1.002   1.002   1.002   1.002   1.002   1.002   1.002   1.002   1.002   1.002   1.002   1.002   1.002   1.002   1.002   1.002   1.002   1.002   1.002   1.002   1.002   1.002   1.002   1.002   1.002   1.002   1.002   1.002
   148.33    1.002   1.002   1.002   1.002   1.002   1.002   1.002   1.002   1.002   1.002   1.002   1.002   1.002   1.002   1.002   1.002   1.002   1.002   1.002   1.002   1.002   1.002   1.002   1.002   1.002   1.002   1.002   1.002   1.002   1.002   1.002
   142.50    1.002   1.002   1.002   1.002   1.002   1.002   1.002   1.002   1.002   1.002   1.002   1.002   1.002   1.002   1.002   1.002   1.002   1.002   1.002   1.002   1.002   1.002   1.002   1.002   1.002   1.002   1.002   1.002   1.002   1.002   1.002
   136.67    1.002   1.002   1.002   1.002   1.002   1.002   1.002   1.002   1.002   1.002   1.002   1.002   1.002   1.002   1.002   1.002   1.002   1.002   1.002   1.002   1.002   1.002   1.002   1.002   1.002   1.002   1.002   1.002   1.002   1.002   1.002
   130.83    1.002   1.002   1.002   1.002   1.002   1.002   1.002   1.002   1.002   1.002   1.002   1.002   1.002   1.002   1.002   1.002   1.002   1.002   1.002   1.002   1.002   1.002   1.002   1.002   1.002   1.002   1.002   1.002   1.002   1.002   1.002
   125.00    1.002   1.002   1.002   1.002   1.002   1.002   1.002   1.002   1.002   1.002   1.002   1.002   1.002   1.002   1.002   1.002   1.002   1.002   1.002   1.002   1.002   1.002   1.002   1.002   1.002   1.002   1.002   1.002   1.002   1.002   1.002
   119.17    1.002   1.002   1.002   1.002   1.002   1.002   1.002   1.002   1.002   1.002   1.002   1.002   1.002   1.002   1.002   1.002   1.002   1.002   1.002   1.002   1.002   1.002   1.002   1.002   1.002   1.002   1.002   1.002   1.002   1.002   1.002
   113.33    1.002   1.002   1.002   1.002   1.002   1.002   1.002   1.002   1.002   1.002   1.002   1.002   1.002   1.002   1.002   1.002   1.002   1.002   1.002   1.002   1.002   1.002   1.002   1.002   1.002   1.002   1.002   1.002   1.002   1.002   1.002
   107.50    1.002   1.002   1.002   1.002   1.002   1.002   1.002   1.002   1.002   1.002   1.002   1.002   1.002   1.002   1.002   1.002   1.002   1.002   1.002   1.002   1.002   1.002   1.002   1.002   1.002   1.002   1.002   1.002   1.002   1.002   1.002
   101.67    1.002   1.002   1.002   1.002   1.002   1.002   1.002   1.002   1.002   1.002   1.002   1.002   1.002   1.002   1.002   1.002   1.002   1.002   1.002   1.002   1.002   1.002   1.002   1.002   1.002   1.002   1.002   1.002   1.002   1.002   1.002
    95.83    1.002   1.002   1.002   1.002   1.002   1.002   1.002   1.002   1.002   1.002   1.002   1.002   1.002   1.002   1.002   1.002   1.002   1.002   1.002   1.002   1.002   1.002   1.002   1.002   1.002   1.002   1.002   1.002   1.002   1.002   1.002
    90.00    1.002   1.002   1.002   1.002   1.002   1.002   1.002   1.002   1.002   1.002   1.002   1.002   1.002   1.002   1.002   1.002   1.002   1.002   1.002   1.002   1.002   1.002   1.002   1.002   1.002   1.002   1.002   1.002   1.002   1.002   1.002
    84.17    1.002   1.002   1.002   1.002   1.002   1.002   1.002   1.002   1.002   1.002   1.002   1.002   1.002   1.002   1.002   1.002   1.002   1.002   1.002   1.002   1.002   1.002   1.002   1.002   1.002   1.002   1.002   1.002   1.002   1.002   1.002
    78.33    1.002   1.002   1.002   1.002   1.002   1.002   1.002   1.002   1.002   1.002   1.002   1.002   1.002   1.002   1.002   1.002   1.002   1.002   1.002   1.002   1.002   1.002   1.002   1.002   1.002   1.002   1.002   1.002   1.002   1.002   1.002
    72.50    1.002   1.002   1.002   1.002   1.002   1.002   1.002   1.002   1.002   1.002   1.002   1.002   1.002   1.002   1.002   1.002   1.002   1.002   1.002   1.002   1.002   1.002   1.002   1.002   1.002   1.002   1.002   1.002   1.002   1.002   1.002
    66.67    1.002   1.002   1.002   1.002   1.002   1.002   1.002   1.002   1.002   1.002   1.002   1.002   1.002   1.002   1.002   1.002   1.002   1.002   1.002   1.002   1.002   1.002   1.002   1.002   1.002   1.002   1.002   1.002   1.002   1.002   1.002
    60.83    1.002   1.002   1.002   1.002   1.002   1.002   1.002   1.002   1.002   1.002   1.002   1.002   1.002   1.002   1.002   1.002   1.002   1.002   1.002   1.002   1.002   1.002   1.002   1.002   1.002   1.002   1.002   1.002   1.002   1.002   1.002
    55.00    1.002   1.002   1.002   1.002   1.002   1.002   1.002   1.002   1.002   1.002   1.002   1.002   1.002   1.002   1.002   1.002   1.002   1.002   1.002   1.002   1.002   1.002   1.002   1.002   1.002   1.002   1.002   1.002   1.002   1.002   1.002
    49.17    1.002   1.002   1.002   1.002   1.002   1.002   1.002   1.002   1.002   1.002   1.002   1.002   1.002   1.002   1.002   1.002   1.002   1.002   1.002   1.002   1.002   1.002   1.002   1.002   1.002   1.002   1.002   1.002   1.002   1.002   1.002
    43.33    1.002   1.002   1.002   1.002   1.002   1.002   1.002   1.002   1.002   1.002   1.002   1.002   1.002   1.002   1.002   1.002   1.002   1.002   1.002   1.002   1.002   1.002   1.002   1.002   1.002   1.002   1.002   1.002   1.002   1.002   1.002
    37.50    1.002   1.002   1.002   1.002   1.002   1.002   1.002   1.002   1.002   1.002   1.002   1.002   1.002   1.002   1.002   1.002   1.002   1.002   1.002   1.002   1.002   1.002   1.002   1.002   1.002   1.002   1.002   1.002   1.002   1.002   1.002
    31.67    1.002   1.002   1.002   1.002   1.002   1.002   1.002   1.002   1.002   1.002   1.002   1.002   1.002   1.002   1.002   1.002   1.002   1.002   1.002   1.002   1.002   1.002   1.002   1.002   1.002   1.002   1.002   1.002   1.002   1.002   1.002
    25.83    1.002   1.002   1.002   1.002   1.002   1.002   1.002   1.002   1.002   1.002   1.002   1.002   1.002   1.002   1.002   1.002   1.002   1.002   1.002   1.002   1.002   1.002   1.002   1.002   1.002   1.002   1.002   1.002   1.002   1.002   1.002
    20.00    1.002   1.002   1.002   1.002   1.002   1.002   1.002   1.002   1.002   1.002   1.002   1.002   1.002   1.002   1.002   1.002   1.002   1.002   1.002   1.002   1.002   1.002   1.002   1.002   1.002   1.002   1.002   1.002   1.002   1.002   1.002
    14.17    1.002   1.002   1.002   1.002   1.002   1.002   1.002   1.002   1.002   1.002   1.002   1.002   1.002   1.002   1.002   1.002   1.002   1.002   1.002   1.002   1.002   1.002   1.002   1.002   1.002   1.002   1.002   1.002   1.002   1.002   1.002
     8.33    1.002   1.002   1.002   1.002   1.002   1.002   1.002   1.002   1.002   1.002   1.002   1.002   1.002   1.002   1.002   1.002   1.002   1.002   1.002   1.002   1.002   1.002   1.002   1.002   1.002   1.002   1.002   1.002   1.002   1.002   1.002
     2.50    1.002   1.002   1.002   1.002   1.002   1.002   1.002   1.002   1.002   1.002   1.002   1.002   1.002   1.002   1.002   1.002   1.002   1.002   1.002   1.002   1.002   1.002   1.002   1.002   1.002   1.002   1.002   1.002   1.002   1.002   1.002

   Mean standard deviation across all grid points:
      u component:    2.032 m/s
      v component:    1.619 m/s
      w component:    1.002 m/s


U-component (X) statistics from the interpolated hub point:

   Mean =  12.0000 m/s
   TI   =  16.3519 %


Processing complete.  114.98 CPU seconds used.
